// Generated for: spectre
// Generated on: Dec  5 23:32:35 2019
// Design library name: CHARACTERIZATION
// Design cell name: FAST_BIAS
// Design view name: schematic
simulator lang=spectre
global 0
