// Generated for: spectre
// Generated on: Dec  5 22:02:27 2019
// Design library name: CHARACTERIZATION
// Design cell name: DC_BIAS_NMOS
// Design view name: schematic
simulator lang=spectre
global 0
