// Generated for: spectre
// Generated on: Dec  6 14:44:04 2019
// Design library name: CHARACTERIZATION
// Design cell name: FT
// Design view name: schematic
simulator lang=spectre
global 0
