// Generated for: spectre
// Generated on: Dec  9 08:58:03 2019
// Design library name: CHARACTERIZATION
// Design cell name: MOS_AC_tb
// Design view name: schematic
simulator lang=spectre
global 0
