// Generated for: spectre
// Generated on: Dec  9 14:24:50 2019
// Design library name: CHARACTERIZATION
// Design cell name: NOISE_NMOS
// Design view name: schematic
simulator lang=spectre
global 0
