// Generated for: spectre
// Generated on: Dec  4 16:42:28 2019
// Design library name: CHARACTERIZATION
// Design cell name: DC_BIAS_NMOS
// Design view name: schematic
simulator lang=spectre
global 0
